/*--------------------------------*- C++ -*----------------------------------*| =========                 |                                                 |
| \      /  F ield         | OpenFOAM: The Open Source CFD Toolbox           |
|  \    /   O peration     | Version:  5                                     |
|   \  /    A nd           | Web:      www.OpenFOAM.org                      |
|    \/     M anipulation  |                                                 |
\*---------------------------------------------------------------------------*/
FoamFile
{
    version     2.0;
    format      ascii;
    class       dictionary;
    location    "constant";
    object      transportProperties;
}
// * * * * * * * * * * * * * * * * * * * * * * * * * * * * * * * * * * * * * //
transportModel  Newtonian;

nu              [0 2 -1 0 0 0 0] 	3.35e-7;//1.0;//1.06e-7;//
rho				  	6400;//[kg/m^3]//		[1 -3  0 0 0 0 0]

//T0              [0 0 1 0 0 0 0] 	20;//1.0;//1.06e-7;//
// Maximum allowable relative field difference in any cell comparing
// to last Elmer update. This option controls frequency Elmer is called.
//     1     - once
//     (0,1) - when relative difference in any cell exceeds given value
//     0     - every iteration
maxRelDiff          0.5;//
//minPoint	(-0.2 -0.2 -0.05);
//maxPoint	(0.2 0.2 0.05);
// ************************************************************************* //
